plots/csv/rotor_angle_dev_bus18_julia.csv
t_s,rotor_angle_dev_rad,bus_voltage_angle_dev_rad,angle_source,angle_is_exact_bus_voltage
0.0,0.0,0.0,Vmag_get_voltage_magnitude_series__angle_get_voltage_angle_series,true
0.01,7.820133429703446e-16,7.820133429703446e-16,Vmag_get_voltage_magnitude_series__angle_get_voltage_angle_series,true
0.02,1.8873791418627993e-16,1.8873791418627993e-16,Vmag_get_voltage_magnitude_series__angle_get_voltage_angle_series,true
0.03,4.579669976578052e-17,4.579669976578052e-17,Vmag_get_voltage_magnitude_series__angle_get_voltage_angle_series,true
0.04,1.3114509478384155e-16,1.3114509478384155e-16,Vmag_get_voltage_magnitude_series__angle_get_voltage_angle_series,true
0.05,1.73472347597686e-17,1.73472347597686e-17,Vmag_get_voltage_magnitude_series__angle_get_voltage_angle_series,true
0.06,4.857225732733597e-17,4.857225732733597e-17,Vmag_get_voltage_magnitude_series__angle_get_voltage_angle_series,true
0.07,2.7131075164276983e-16,2.7131075164276983e-16,Vmag_get_voltage_magnitude_series__angle_get_voltage_angle_series,true
0.08,1.5265566588600754e-17,1.5265566588600754e-17,Vmag_get_voltage_magnitude_series__angle_get_voltage_angle_series,true
0.09,-4.579669976579071e-17,-4.579669976579071e-17,Vmag_get_voltage_magnitude_series__angle_get_voltage_angle_series,true
0.1,-1.1796119636642288e-16,-1.1796119636642288e-16,Vmag_get_voltage_magnitude_series__angle_get_voltage_angle_series,true
0.11,-0.0026646356399064016,-0.0026646356399064016,Vmag_get_voltage_magnitude_series__angle_get_voltage_angle_series,true
0.12,-0.0027691678644539025,-0.0027691678644539025,Vmag_get_voltage_magnitude_series__angle_get_voltage_angle_series,true
0.13,-0.0025704321332131303,-0.0025704321332131303,Vmag_get_voltage_magnitude_series__angle_get_voltage_angle_series,true
0.14,-0.002552963895781643,-0.002552963895781643,Vmag_get_voltage_magnitude_series__angle_get_voltage_angle_series,true
0.15,-0.002599923043103805,-0.002599923043103805,Vmag_get_voltage_magnitude_series__angle_get_voltage_angle_series,true
0.16,-0.002713841268518154,-0.002713841268518154,Vmag_get_voltage_magnitude_series__angle_get_voltage_angle_series,true
0.17,-0.002870169332548867,-0.002870169332548867,Vmag_get_voltage_magnitude_series__angle_get_voltage_angle_series,true
0.18,-0.0030603720546155066,-0.0030603720546155066,Vmag_get_voltage_magnitude_series__angle_get_voltage_angle_series,true
0.19,-0.0032735892087126803,-0.0032735892087126803,Vmag_get_voltage_magnitude_series__angle_get_voltage_angle_series,true
0.2,-0.003505222167455471,-0.003505222167455471,Vmag_get_voltage_magnitude_series__angle_get_voltage_angle_series,true
0.21,-0.0037509178564628276,-0.0037509178564628276,Vmag_get_voltage_magnitude_series__angle_get_voltage_angle_series,true
0.22,-0.0040076625617260515,-0.0040076625617260515,Vmag_get_voltage_magnitude_series__angle_get_voltage_angle_series,true
0.23,-0.004272819293020546,-0.004272819293020546,Vmag_get_voltage_magnitude_series__angle_get_voltage_angle_series,true
0.24,-0.004544426917871592,-0.004544426917871592,Vmag_get_voltage_magnitude_series__angle_get_voltage_angle_series,true
0.25,-0.004820962992177864,-0.004820962992177864,Vmag_get_voltage_magnitude_series__angle_get_voltage_angle_series,true
0.26,-0.0051013362376684844,-0.0051013362376684844,Vmag_get_voltage_magnitude_series__angle_get_voltage_angle_series,true
0.27,-0.005384799262564884,-0.005384799262564884,Vmag_get_voltage_magnitude_series__angle_get_voltage_angle_series,true
0.28,-0.0056708975937791424,-0.0056708975937791424,Vmag_get_voltage_magnitude_series__angle_get_voltage_angle_series,true
0.29,-0.005959408130115931,-0.005959408130115931,Vmag_get_voltage_magnitude_series__angle_get_voltage_angle_series,true
0.3,-0.00625028474479277,-0.00625028474479277,Vmag_get_voltage_magnitude_series__angle_get_voltage_angle_series,true
0.31,-0.006543605659049495,-0.006543605659049495,Vmag_get_voltage_magnitude_series__angle_get_voltage_angle_series,true
0.32,-0.00683952529342805,-0.00683952529342805,Vmag_get_voltage_magnitude_series__angle_get_voltage_angle_series,true
0.33,-0.007138231189046611,-0.007138231189046611,Vmag_get_voltage_magnitude_series__angle_get_voltage_angle_series,true
0.34,-0.007439906614663009,-0.007439906614663009,Vmag_get_voltage_magnitude_series__angle_get_voltage_angle_series,true
0.35,-0.007744699648470139,-0.007744699648470139,Vmag_get_voltage_magnitude_series__angle_get_voltage_angle_series,true
0.36,-0.008052699056153325,-0.008052699056153325,Vmag_get_voltage_magnitude_series__angle_get_voltage_angle_series,true
0.37,-0.00836391667697794,-0.00836391667697794,Vmag_get_voltage_magnitude_series__angle_get_voltage_angle_series,true
0.38,-0.008678276586826511,-0.008678276586826511,Vmag_get_voltage_magnitude_series__angle_get_voltage_angle_series,true
0.39,-0.008995609801831176,-0.008995609801831176,Vmag_get_voltage_magnitude_series__angle_get_voltage_angle_series,true
0.4,-0.009315654357895064,-0.009315654357895064,Vmag_get_voltage_magnitude_series__angle_get_voltage_angle_series,true
0.41,-0.009638059845635429,-0.009638059845635429,Vmag_get_voltage_magnitude_series__angle_get_voltage_angle_series,true
0.42,-0.009962394969211093,-0.009962394969211093,Vmag_get_voltage_magnitude_series__angle_get_voltage_angle_series,true
0.43,-0.01028815813179502,-0.01028815813179502,Vmag_get_voltage_magnitude_series__angle_get_voltage_angle_series,true
0.44,-0.010614789320936737,-0.010614789320936737,Vmag_get_voltage_magnitude_series__angle_get_voltage_angle_series,true
0.45,-0.010941683193491371,-0.010941683193491371,Vmag_get_voltage_magnitude_series__angle_get_voltage_angle_series,true
0.46,-0.01126820234052715,-0.01126820234052715,Vmag_get_voltage_magnitude_series__angle_get_voltage_angle_series,true
0.47,-0.011593690271283017,-0.011593690271283017,Vmag_get_voltage_magnitude_series__angle_get_voltage_angle_series,true
0.48,-0.011917483858348402,-0.011917483858348402,Vmag_get_voltage_magnitude_series__angle_get_voltage_angle_series,true
0.49,-0.012238924640795686,-0.012238924640795686,Vmag_get_voltage_magnitude_series__angle_get_voltage_angle_series,true
0.5,-0.01255736906124645,-0.01255736906124645,Vmag_get_voltage_magnitude_series__angle_get_voltage_angle_series,true
0.51,-0.012872197284435213,-0.012872197284435213,Vmag_get_voltage_magnitude_series__angle_get_voltage_angle_series,true
0.52,-0.01318282062667018,-0.01318282062667018,Vmag_get_voltage_magnitude_series__angle_get_voltage_angle_series,true
0.53,-0.013488687625859282,-0.013488687625859282,Vmag_get_voltage_magnitude_series__angle_get_voltage_angle_series,true
0.54,-0.013789288689165975,-0.013789288689165975,Vmag_get_voltage_magnitude_series__angle_get_voltage_angle_series,true
0.55,-0.014084159518632946,-0.014084159518632946,Vmag_get_voltage_magnitude_series__angle_get_voltage_angle_series,true
0.56,-0.01437288327573324,-0.01437288327573324,Vmag_get_voltage_magnitude_series__angle_get_voltage_angle_series,true
0.57,-0.01465509175976825,-0.01465509175976825,Vmag_get_voltage_magnitude_series__angle_get_voltage_angle_series,true
0.58,-0.014930465638114922,-0.014930465638114922,Vmag_get_voltage_magnitude_series__angle_get_voltage_angle_series,true
0.59,-0.015198733811051874,-0.015198733811051874,Vmag_get_voltage_magnitude_series__angle_get_voltage_angle_series,true
0.6,-0.015459672264394259,-0.015459672264394259,Vmag_get_voltage_magnitude_series__angle_get_voltage_angle_series,true
0.61,-0.015713102272564918,-0.015713102272564918,Vmag_get_voltage_magnitude_series__angle_get_voltage_angle_series,true
0.62,-0.015958888256770516,-0.015958888256770516,Vmag_get_voltage_magnitude_series__angle_get_voltage_angle_series,true
0.63,-0.01619693539936101,-0.01619693539936101,Vmag_get_voltage_magnitude_series__angle_get_voltage_angle_series,true
0.64,-0.01642718701242822,-0.01642718701242822,Vmag_get_voltage_magnitude_series__angle_get_voltage_angle_series,true
0.65,-0.016649621872978207,-0.016649621872978207,Vmag_get_voltage_magnitude_series__angle_get_voltage_angle_series,true
0.66,-0.01686425152521735,-0.01686425152521735,Vmag_get_voltage_magnitude_series__angle_get_voltage_angle_series,true
0.67,-0.017071117608619346,-0.017071117608619346,Vmag_get_voltage_magnitude_series__angle_get_voltage_angle_series,true
0.68,-0.01727028931624687,-0.01727028931624687,Vmag_get_voltage_magnitude_series__angle_get_voltage_angle_series,true
0.69,-0.017461860929894112,-0.017461860929894112,Vmag_get_voltage_magnitude_series__angle_get_voltage_angle_series,true
0.7,-0.01764594952115018,-0.01764594952115018,Vmag_get_voltage_magnitude_series__angle_get_voltage_angle_series,true
0.71,-0.017822692781131508,-0.017822692781131508,Vmag_get_voltage_magnitude_series__angle_get_voltage_angle_series,true
0.72,-0.017992247014187775,-0.017992247014187775,Vmag_get_voltage_magnitude_series__angle_get_voltage_angle_series,true
0.73,-0.01815478526383283,-0.01815478526383283,Vmag_get_voltage_magnitude_series__angle_get_voltage_angle_series,true
0.74,-0.0183104955639661,-0.0183104955639661,Vmag_get_voltage_magnitude_series__angle_get_voltage_angle_series,true
0.75,-0.018459579314676764,-0.018459579314676764,Vmag_get_voltage_magnitude_series__angle_get_voltage_angle_series,true
0.76,-0.018602249750348764,-0.018602249750348764,Vmag_get_voltage_magnitude_series__angle_get_voltage_angle_series,true
0.77,-0.018738730497912342,-0.018738730497912342,Vmag_get_voltage_magnitude_series__angle_get_voltage_angle_series,true
0.78,-0.018869254188623327,-0.018869254188623327,Vmag_get_voltage_magnitude_series__angle_get_voltage_angle_series,true
0.79,-0.01899406113698965,-0.01899406113698965,Vmag_get_voltage_magnitude_series__angle_get_voltage_angle_series,true
0.8,-0.019113398054654875,-0.019113398054654875,Vmag_get_voltage_magnitude_series__angle_get_voltage_angle_series,true
0.81,-0.019227516787169757,-0.019227516787169757,Vmag_get_voltage_magnitude_series__angle_get_voltage_angle_series,true
0.82,-0.019336673094629445,-0.019336673094629445,Vmag_get_voltage_magnitude_series__angle_get_voltage_angle_series,true
0.83,-0.019441125423919046,-0.019441125423919046,Vmag_get_voltage_magnitude_series__angle_get_voltage_angle_series,true
0.84,-0.01954113372524731,-0.01954113372524731,Vmag_get_voltage_magnitude_series__angle_get_voltage_angle_series,true
0.85,-0.01963695827374377,-0.01963695827374377,Vmag_get_voltage_magnitude_series__angle_get_voltage_angle_series,true
0.86,-0.019728858506017036,-0.019728858506017036,Vmag_get_voltage_magnitude_series__angle_get_voltage_angle_series,true
0.87,-0.019817091903234742,-0.019817091903234742,Vmag_get_voltage_magnitude_series__angle_get_voltage_angle_series,true
0.88,-0.019901912877523655,-0.019901912877523655,Vmag_get_voltage_magnitude_series__angle_get_voltage_angle_series,true
0.89,-0.019983571720568808,-0.019983571720568808,Vmag_get_voltage_magnitude_series__angle_get_voltage_angle_series,true
0.9,-0.02006231358130064,-0.02006231358130064,Vmag_get_voltage_magnitude_series__angle_get_voltage_angle_series,true
0.91,-0.02013837749901122,-0.02013837749901122,Vmag_get_voltage_magnitude_series__angle_get_voltage_angle_series,true
0.92,-0.020211995502410138,-0.020211995502410138,Vmag_get_voltage_magnitude_series__angle_get_voltage_angle_series,true
0.93,-0.02028339175763581,-0.02028339175763581,Vmag_get_voltage_magnitude_series__angle_get_voltage_angle_series,true
0.94,-0.02035278181470204,-0.02035278181470204,Vmag_get_voltage_magnitude_series__angle_get_voltage_angle_series,true
0.95,-0.020420371901075606,-0.020420371901075606,Vmag_get_voltage_magnitude_series__angle_get_voltage_angle_series,true
0.96,-0.020486358313858255,-0.020486358313858255,Vmag_get_voltage_magnitude_series__angle_get_voltage_angle_series,true
0.97,-0.02055092690512233,-0.02055092690512233,Vmag_get_voltage_magnitude_series__angle_get_voltage_angle_series,true
0.98,-0.0206142526241337,-0.0206142526241337,Vmag_get_voltage_magnitude_series__angle_get_voltage_angle_series,true
0.99,-0.020676499178691316,-0.020676499178691316,Vmag_get_voltage_magnitude_series__angle_get_voltage_angle_series,true
1.0,-0.02073781877146085,-0.02073781877146085,Vmag_get_voltage_magnitude_series__angle_get_voltage_angle_series,true
1.01,-0.020798351912658542,-0.020798351912658542,Vmag_get_voltage_magnitude_series__angle_get_voltage_angle_series,true
1.02,-0.02085822733933612,-0.02085822733933612,Vmag_get_voltage_magnitude_series__angle_get_voltage_angle_series,true
1.03,-0.02091756199966238,-0.02091756199966238,Vmag_get_voltage_magnitude_series__angle_get_voltage_angle_series,true
1.04,-0.020976461118100583,-0.020976461118100583,Vmag_get_voltage_magnitude_series__angle_get_voltage_angle_series,true
1.05,-0.021035018344075115,-0.021035018344075115,Vmag_get_voltage_magnitude_series__angle_get_voltage_angle_series,true
1.06,-0.021093315956700078,-0.021093315956700078,Vmag_get_voltage_magnitude_series__angle_get_voltage_angle_series,true
1.07,-0.02115142514199935,-0.02115142514199935,Vmag_get_voltage_magnitude_series__angle_get_voltage_angle_series,true
1.08,-0.021209406325454132,-0.021209406325454132,Vmag_get_voltage_magnitude_series__angle_get_voltage_angle_series,true
1.09,-0.021267309559972244,-0.021267309559972244,Vmag_get_voltage_magnitude_series__angle_get_voltage_angle_series,true
1.1,-0.021325174957159305,-0.021325174957159305,Vmag_get_voltage_magnitude_series__angle_get_voltage_angle_series,true
1.11,-0.02138303316013042,-0.02138303316013042,Vmag_get_voltage_magnitude_series__angle_get_voltage_angle_series,true
1.12,-0.021440905854767826,-0.021440905854767826,Vmag_get_voltage_magnitude_series__angle_get_voltage_angle_series,true
1.13,-0.021498806309191747,-0.021498806309191747,Vmag_get_voltage_magnitude_series__angle_get_voltage_angle_series,true
1.14,-0.02155673993445748,-0.02155673993445748,Vmag_get_voltage_magnitude_series__angle_get_voltage_angle_series,true
1.15,-0.021614704864801944,-0.021614704864801944,Vmag_get_voltage_magnitude_series__angle_get_voltage_angle_series,true
1.16,-0.021672692559081067,-0.021672692559081067,Vmag_get_voltage_magnitude_series__angle_get_voltage_angle_series,true
1.17,-0.02173068839768444,-0.02173068839768444,Vmag_get_voltage_magnitude_series__angle_get_voltage_angle_series,true
1.18,-0.021788672293161473,-0.021788672293161473,Vmag_get_voltage_magnitude_series__angle_get_voltage_angle_series,true
1.19,-0.02184661930041044,-0.02184661930041044,Vmag_get_voltage_magnitude_series__angle_get_voltage_angle_series,true
1.2,-0.021904500214290794,-0.021904500214290794,Vmag_get_voltage_magnitude_series__angle_get_voltage_angle_series,true
1.21,-0.021962282173693767,-0.021962282173693767,Vmag_get_voltage_magnitude_series__angle_get_voltage_angle_series,true
1.22,-0.02201992923872932,-0.02201992923872932,Vmag_get_voltage_magnitude_series__angle_get_voltage_angle_series,true
1.23,-0.022077402962751923,-0.022077402962751923,Vmag_get_voltage_magnitude_series__angle_get_voltage_angle_series,true
1.24,-0.022134662948667113,-0.022134662948667113,Vmag_get_voltage_magnitude_series__angle_get_voltage_angle_series,true
1.25,-0.022191667375676533,-0.022191667375676533,Vmag_get_voltage_magnitude_series__angle_get_voltage_angle_series,true
1.26,-0.02224837351472407,-0.02224837351472407,Vmag_get_voltage_magnitude_series__angle_get_voltage_angle_series,true
1.27,-0.022304738211767244,-0.022304738211767244,Vmag_get_voltage_magnitude_series__angle_get_voltage_angle_series,true
1.28,-0.02236071834869227,-0.02236071834869227,Vmag_get_voltage_magnitude_series__angle_get_voltage_angle_series,true
1.29,-0.022416271277026365,-0.022416271277026365,Vmag_get_voltage_magnitude_series__angle_get_voltage_angle_series,true
1.3,-0.02247135521784724,-0.02247135521784724,Vmag_get_voltage_magnitude_series__angle_get_voltage_angle_series,true
1.31,-0.022525929640299917,-0.022525929640299917,Vmag_get_voltage_magnitude_series__angle_get_voltage_angle_series,true
1.32,-0.022579955598228556,-0.022579955598228556,Vmag_get_voltage_magnitude_series__angle_get_voltage_angle_series,true
1.33,-0.022633396044872883,-0.022633396044872883,Vmag_get_voltage_magnitude_series__angle_get_voltage_angle_series,true
1.34,-0.022686216111040457,-0.022686216111040457,Vmag_get_voltage_magnitude_series__angle_get_voltage_angle_series,true
1.35,-0.022738383348915266,-0.022738383348915266,Vmag_get_voltage_magnitude_series__angle_get_voltage_angle_series,true
1.36,-0.022789867950910925,-0.022789867950910925,Vmag_get_voltage_magnitude_series__angle_get_voltage_angle_series,true
1.37,-0.022840642926349113,-0.022840642926349113,Vmag_get_voltage_magnitude_series__angle_get_voltage_angle_series,true
1.38,-0.022890684256517656,-0.022890684256517656,Vmag_get_voltage_magnitude_series__angle_get_voltage_angle_series,true
1.39,-0.022939971011769388,-0.022939971011769388,Vmag_get_voltage_magnitude_series__angle_get_voltage_angle_series,true
1.4,-0.022988485439004416,-0.022988485439004416,Vmag_get_voltage_magnitude_series__angle_get_voltage_angle_series,true
1.41,-0.02303621302405039,-0.02303621302405039,Vmag_get_voltage_magnitude_series__angle_get_voltage_angle_series,true
1.42,-0.023083142519364216,-0.023083142519364216,Vmag_get_voltage_magnitude_series__angle_get_voltage_angle_series,true
1.43,-0.023129265947685083,-0.023129265947685083,Vmag_get_voltage_magnitude_series__angle_get_voltage_angle_series,true
1.44,-0.02317457858032583,-0.02317457858032583,Vmag_get_voltage_magnitude_series__angle_get_voltage_angle_series,true
1.45,-0.023219078888275145,-0.023219078888275145,Vmag_get_voltage_magnitude_series__angle_get_voltage_angle_series,true
1.46,-0.023262768470673555,-0.023262768470673555,Vmag_get_voltage_magnitude_series__angle_get_voltage_angle_series,true
1.47,-0.023305651963271598,-0.023305651963271598,Vmag_get_voltage_magnitude_series__angle_get_voltage_angle_series,true
1.48,-0.023347736926642625,-0.023347736926642625,Vmag_get_voltage_magnitude_series__angle_get_voltage_angle_series,true
1.49,-0.023389033713091492,-0.023389033713091492,Vmag_get_voltage_magnitude_series__angle_get_voltage_angle_series,true
1.5,-0.023429555320386333,-0.023429555320386333,Vmag_get_voltage_magnitude_series__angle_get_voltage_angle_series,true
1.51,-0.023469317231340846,-0.023469317231340846,Vmag_get_voltage_magnitude_series__angle_get_voltage_angle_series,true
1.52,-0.023508337237044714,-0.023508337237044714,Vmag_get_voltage_magnitude_series__angle_get_voltage_angle_series,true
1.53,-0.023546635253602722,-0.023546635253602722,Vmag_get_voltage_magnitude_series__angle_get_voltage_angle_series,true
1.54,-0.023584233125762907,-0.023584233125762907,Vmag_get_voltage_magnitude_series__angle_get_voltage_angle_series,true
1.55,-0.023621154426139677,-0.023621154426139677,Vmag_get_voltage_magnitude_series__angle_get_voltage_angle_series,true
1.56,-0.023657424248800015,-0.023657424248800015,Vmag_get_voltage_magnitude_series__angle_get_voltage_angle_series,true
1.57,-0.023693068995933868,-0.023693068995933868,Vmag_get_voltage_magnitude_series__angle_get_voltage_angle_series,true
1.58,-0.02372811616859811,-0.02372811616859811,Vmag_get_voltage_magnitude_series__angle_get_voltage_angle_series,true
1.59,-0.023762594150760326,-0.023762594150760326,Vmag_get_voltage_magnitude_series__angle_get_voltage_angle_series,true
1.6,-0.02379653199935514,-0.02379653199935514,Vmag_get_voltage_magnitude_series__angle_get_voltage_angle_series,true
1.61,-0.02382995923520494,-0.02382995923520494,Vmag_get_voltage_magnitude_series__angle_get_voltage_angle_series,true
1.62,-0.023862905637175413,-0.023862905637175413,Vmag_get_voltage_magnitude_series__angle_get_voltage_angle_series,true
1.63,-0.023895401045216702,-0.023895401045216702,Vmag_get_voltage_magnitude_series__angle_get_voltage_angle_series,true
1.64,-0.023927475165984754,-0.023927475165984754,Vmag_get_voltage_magnitude_series__angle_get_voltage_angle_series,true
1.65,-0.023959157389884855,-0.023959157389884855,Vmag_get_voltage_magnitude_series__angle_get_voltage_angle_series,true
1.66,-0.023990476615542544,-0.023990476615542544,Vmag_get_voltage_magnitude_series__angle_get_voltage_angle_series,true
1.67,-0.024021461083551066,-0.024021461083551066,Vmag_get_voltage_magnitude_series__angle_get_voltage_angle_series,true
1.68,-0.024052138222971347,-0.024052138222971347,Vmag_get_voltage_magnitude_series__angle_get_voltage_angle_series,true
1.69,-0.024082534506200372,-0.024082534506200372,Vmag_get_voltage_magnitude_series__angle_get_voltage_angle_series,true
1.7,-0.024112675319845213,-0.024112675319845213,Vmag_get_voltage_magnitude_series__angle_get_voltage_angle_series,true
1.71,-0.02414258484379836,-0.02414258484379836,Vmag_get_voltage_magnitude_series__angle_get_voltage_angle_series,true
1.72,-0.02417228594551653,-0.02417228594551653,Vmag_get_voltage_magnitude_series__angle_get_voltage_angle_series,true
1.73,-0.024201800088506514,-0.024201800088506514,Vmag_get_voltage_magnitude_series__angle_get_voltage_angle_series,true
1.74,-0.02423114725026271,-0.02423114725026271,Vmag_get_voltage_magnitude_series__angle_get_voltage_angle_series,true
1.75,-0.024260345857216557,-0.024260345857216557,Vmag_get_voltage_magnitude_series__angle_get_voltage_angle_series,true
1.76,-0.024289412731565957,-0.024289412731565957,Vmag_get_voltage_magnitude_series__angle_get_voltage_angle_series,true
1.77,-0.024318363050072712,-0.024318363050072712,Vmag_get_voltage_magnitude_series__angle_get_voltage_angle_series,true
1.78,-0.024347210317791752,-0.024347210317791752,Vmag_get_voltage_magnitude_series__angle_get_voltage_angle_series,true
1.79,-0.024375966353181386,-0.024375966353181386,Vmag_get_voltage_magnitude_series__angle_get_voltage_angle_series,true
1.8,-0.024404641285437116,-0.024404641285437116,Vmag_get_voltage_magnitude_series__angle_get_voltage_angle_series,true
1.81,-0.024433243563467124,-0.024433243563467124,Vmag_get_voltage_magnitude_series__angle_get_voltage_angle_series,true
1.82,-0.02446177997753714,-0.02446177997753714,Vmag_get_voltage_magnitude_series__angle_get_voltage_angle_series,true
1.83,-0.024490255688796096,-0.024490255688796096,Vmag_get_voltage_magnitude_series__angle_get_voltage_angle_series,true
1.84,-0.024518674271225064,-0.024518674271225064,Vmag_get_voltage_magnitude_series__angle_get_voltage_angle_series,true
1.85,-0.02454703776205804,-0.02454703776205804,Vmag_get_voltage_magnitude_series__angle_get_voltage_angle_series,true
1.86,-0.024575346720346232,-0.024575346720346232,Vmag_get_voltage_magnitude_series__angle_get_voltage_angle_series,true
1.87,-0.024603600293810094,-0.024603600293810094,Vmag_get_voltage_magnitude_series__angle_get_voltage_angle_series,true
1.88,-0.02463179629282641,-0.02463179629282641,Vmag_get_voltage_magnitude_series__angle_get_voltage_angle_series,true
1.89,-0.024659931270359713,-0.024659931270359713,Vmag_get_voltage_magnitude_series__angle_get_voltage_angle_series,true
1.9,-0.02468800060748449,-0.02468800060748449,Vmag_get_voltage_magnitude_series__angle_get_voltage_angle_series,true
1.91,-0.02471599860311887,-0.02471599860311887,Vmag_get_voltage_magnitude_series__angle_get_voltage_angle_series,true
1.92,-0.024743918568812764,-0.024743918568812764,Vmag_get_voltage_magnitude_series__angle_get_voltage_angle_series,true
1.93,-0.024771752924671056,-0.024771752924671056,Vmag_get_voltage_magnitude_series__angle_get_voltage_angle_series,true
1.94,-0.024799493298803897,-0.024799493298803897,Vmag_get_voltage_magnitude_series__angle_get_voltage_angle_series,true
1.95,-0.02482713062812217,-0.02482713062812217,Vmag_get_voltage_magnitude_series__angle_get_voltage_angle_series,true
1.96,-0.02485465525856296,-0.02485465525856296,Vmag_get_voltage_magnitude_series__angle_get_voltage_angle_series,true
1.97,-0.02488205704728652,-0.02488205704728652,Vmag_get_voltage_magnitude_series__angle_get_voltage_angle_series,true
1.98,-0.024909325461846536,-0.024909325461846536,Vmag_get_voltage_magnitude_series__angle_get_voltage_angle_series,true
1.99,-0.024936449679191612,-0.024936449679191612,Vmag_get_voltage_magnitude_series__angle_get_voltage_angle_series,true
...
